
     RDKit          3D

 37 41  0  0  0  0  0  0  0  0999 V2000
   25.9240   19.5450   58.8780 C   0  0  0  0  0  0  0  0  0  0  0  0
   24.7450   18.7810   58.9920 C   0  0  0  0  0  0  0  0  0  0  0  0
   24.3820   17.9280   57.9370 C   0  0  0  0  0  0  0  0  0  0  0  0
   25.1510   17.9260   56.7510 C   0  0  0  0  0  0  0  0  0  0  0  0
   26.2690   18.6880   56.6550 N   0  0  0  0  0  0  0  0  0  0  0  0
   26.6590   19.4800   57.6890 C   0  0  0  0  0  0  0  0  0  0  0  0
   23.1660   17.0940   58.0630 C   0  0  0  0  0  0  0  0  0  0  0  0
   22.4230   16.9700   59.2510 C   0  0  0  0  0  0  0  0  0  0  0  0
   21.2790   16.1660   59.2380 C   0  0  0  0  0  0  0  0  0  0  0  0
   20.9390   15.5280   58.0930 N   0  0  0  0  0  0  0  0  0  0  0  0
   21.6530   15.6850   56.9500 C   0  0  0  0  0  0  0  0  0  0  0  0
   22.7640   16.4490   56.9560 N   0  0  0  0  0  0  0  0  0  0  0  0
   21.3290   15.0330   55.8110 N   0  0  0  0  0  0  0  0  0  0  0  0
   20.3140   14.1180   55.7590 C   0  0  0  0  0  0  0  0  0  0  0  0
   20.4760   12.7630   56.1450 C   0  0  0  0  0  0  0  0  0  0  0  0
   19.3750   11.8890   56.0330 C   0  0  0  0  0  0  0  0  0  0  0  0
   18.1370   12.3250   55.5060 C   0  0  0  0  0  0  0  0  0  0  0  0
   17.9630   13.6850   55.1980 C   0  0  0  0  0  0  0  0  0  0  0  0
   19.0640   14.5490   55.2870 C   0  0  0  0  0  0  0  0  0  0  0  0
   16.7670   14.1140   54.5360 N   0  0  0  0  0  0  0  0  0  0  0  0
   16.4050   15.3340   54.0850 C   0  0  0  0  0  0  0  0  0  0  0  0
   15.0960   15.4780   53.3180 C   0  0  0  0  0  0  0  0  0  0  0  0
   14.9720   16.5450   52.4140 C   0  0  0  0  0  0  0  0  0  0  0  0
   13.8010   16.7180   51.6670 C   0  0  0  0  0  0  0  0  0  0  0  0
   12.7320   15.8120   51.8150 C   0  0  0  0  0  0  0  0  0  0  0  0
   12.8570   14.7300   52.7040 C   0  0  0  0  0  0  0  0  0  0  0  0
   14.0380   14.5550   53.4410 C   0  0  0  0  0  0  0  0  0  0  0  0
   11.4540   16.0210   50.9890 C   0  0  0  0  0  0  0  0  0  0  0  0
   10.2360   15.8500   51.8210 N   0  0  0  0  0  0  0  0  0  0  0  0
   10.2030   16.6140   53.0940 C   0  0  0  0  0  0  0  0  0  0  0  0
    8.9690   16.2160   53.9360 C   0  0  0  0  0  0  0  0  0  0  0  0
    7.7300   16.3350   53.1180 N   0  0  0  0  0  0  0  0  0  0  0  0
    6.5140   15.9700   53.8960 C   0  0  0  0  0  0  0  0  0  0  0  0
    7.8030   15.5190   51.8800 C   0  0  0  0  0  0  0  0  0  0  0  0
    8.9920   15.9880   51.0170 C   0  0  0  0  0  0  0  0  0  0  0  0
   17.0500   16.3550   54.2800 O   0  0  0  0  0  0  0  0  0  0  0  0
   21.8210   12.2460   56.7030 C   0  0  0  0  0  0  0  0  0  0  0  0
  2  1  2  0
  3  2  1  0
  4  3  2  0
  5  4  1  0
  6  5  2  0
  6  1  1  0
  7  3  1  0
  8  7  2  0
  9  8  1  0
 10  9  2  0
 11 10  1  0
 12 11  2  0
 12  7  1  0
 13 11  1  0
 14 13  1  0
 15 14  2  0
 16 15  1  0
 17 16  2  0
 18 17  1  0
 19 18  2  0
 19 14  1  0
 20 18  1  0
 21 20  1  0
 22 21  1  0
 23 22  2  0
 24 23  1  0
 25 24  2  0
 26 25  1  0
 27 26  2  0
 27 22  1  0
 28 25  1  0
 29 28  1  0
 30 29  1  0
 31 30  1  0
 32 31  1  0
 33 32  1  0
 34 32  1  0
 35 34  1  0
 35 29  1  0
 36 21  2  0
 37 15  1  0
M  END
$$$$
