FYW
  CCTOOLS-0919241037

 50 53  0  0  1  0  0  0  0  0999 V2000
    7.6140   -0.5430   -0.3890 C   0  0  0  0  0
   -6.4110    2.4700   -0.8050 C   0  0  0  0  0
   -6.5990    1.0780   -1.4430 C   0  0  0  0  0
   -5.2790    0.3280   -1.1660 C   0  0  0  0  0
    3.0100    1.0960    0.3610 C   0  0  0  0  0
    3.5690    0.0070   -0.2940 C   0  0  0  0  0
    4.9400   -0.1590   -0.3130 C   0  0  0  0  0
    0.8110    0.1870    0.4080 C   0  0  0  0  0
   -0.6510    0.3590    0.3100 C   0  0  0  0  0
   -1.2060    1.6350    0.1900 C   0  0  0  0  0
   -3.3480    0.7750    0.1230 C   0  0  0  0  0
   -2.8710   -0.5420    0.2370 C   0  0  0  0  0
   -1.5000   -0.7560    0.3320 C   0  0  0  0  0
   -3.8140   -1.6860    0.2560 C   0  0  0  0  0
   -4.9210   -1.6900    1.1090 C   0  0  0  0  0
    9.0100   -0.5570   -0.3100 F   0  0  0  0  0
    7.2230   -0.4860   -1.7310 F   0  0  0  0  0
    7.1020   -1.7070    0.1970 F   0  0  0  0  0
    7.1080    0.6000    0.3040 O   0  0  0  0  0
    5.7590    0.7630    0.3230 C   0  0  0  0  0
    5.2010    1.8520    0.9770 C   0  0  0  0  0
    3.8310    2.0220    0.9920 C   0  0  0  0  0
    1.6200    1.2640    0.3810 N   0  0  0  0  0
    1.2860   -0.9280    0.5120 O   0  0  0  0  0
   -2.5090    1.8000    0.1020 N   0  0  0  0  0
   -5.7370   -2.7300    1.0940 N   0  0  0  0  0
   -5.5180   -3.7510    0.2890 C   0  0  0  0  0
   -4.4860   -3.7880   -0.5300 N   0  0  0  0  0
   -3.6250   -2.7870   -0.5840 C   0  0  0  0  0
   -4.7090    1.0020    0.0280 N   0  0  0  0  0
   -4.9930    2.4430   -0.1960 C   0  0  0  0  0
   -7.3860    2.6830    0.2170 O   0  0  0  0  0
   -6.4840    3.2480   -1.5650 H   0  0  0  0  0
   -7.4360    0.5580   -0.9770 H   0  0  0  0  0
   -6.7650    1.1730   -2.5160 H   0  0  0  0  0
   -5.4770   -0.7230   -0.9510 H   0  0  0  0  0
   -4.6030    0.4210   -2.0160 H   0  0  0  0  0
    2.9310   -0.7120   -0.7880 H   0  0  0  0  0
    5.3740   -1.0060   -0.8220 H   0  0  0  0  0
   -0.5570    2.4980    0.1690 H   0  0  0  0  0
   -1.1000   -1.7550    0.4200 H   0  0  0  0  0
   -5.1070   -0.8570    1.7710 H   0  0  0  0  0
    5.8390    2.5690    1.4720 H   0  0  0  0  0
    3.3970    2.8690    1.5020 H   0  0  0  0  0
    1.2390    2.1570    0.3750 H   0  0  0  0  0
   -6.2050   -4.5840    0.3030 H   0  0  0  0  0
   -2.7850   -2.8220   -1.2620 H   0  0  0  0  0
   -4.2710    2.8690   -0.8940 H   0  0  0  0  0
   -4.9750    2.9860    0.7490 H   0  0  0  0  0
   -8.3000    2.6650   -0.1000 H   0  0  0  0  0
  1 17  1  0  0  0
  1 16  1  0  0  0
  2  3  1  0  0  0
  2 32  1  0  0  0
  2 33  1  0  0  0
  3 34  1  0  0  0
  3 35  1  0  0  0
  4  3  1  0  0  0
  4 36  1  0  0  0
  4 37  1  0  0  0
  5  6  1  0  0  0
  5 23  1  0  0  0
  6 38  1  0  0  0
  7  6  2  0  0  0
  7 39  1  0  0  0
  8  9  1  0  0  0
  9 10  2  0  0  0
  9 13  1  0  0  0
 10 25  1  0  0  0
 10 40  1  0  0  0
 11 12  1  0  0  0
 11 30  1  0  0  0
 12 14  1  0  0  0
 13 12  2  0  0  0
 13 41  1  0  0  0
 14 29  2  0  0  0
 14 15  1  0  0  0
 15 26  2  0  0  0
 15 42  1  0  0  0
 18  1  1  0  0  0
 19  1  1  0  0  0
 19 20  1  0  0  0
 20 21  2  0  0  0
 20  7  1  0  0  0
 21 22  1  0  0  0
 21 43  1  0  0  0
 22  5  2  0  0  0
 22 44  1  0  0  0
 23  8  1  0  0  0
 23 45  1  0  0  0
 24  8  2  0  0  0
 25 11  2  0  0  0
 26 27  1  0  0  0
 27 46  1  0  0  0
 28 27  2  0  0  0
 29 28  1  0  0  0
 29 47  1  0  0  0
 30  4  1  0  0  0
 31 30  1  0  0  0
 31  2  1  0  0  0
 31 48  1  0  0  0
 31 49  1  0  0  0
 32 50  1  0  0  0
M  END
$$$$
