STI
  CCTOOLS-0919241031

 68 72  0  0  0  0  0  0  0  0999 V2000
    2.7400   -0.0220    8.8890 C   0  0  0  0  0
    1.9140    0.2070    7.8020 C   0  0  0  0  0
    2.4350    0.0090    6.5200 C   0  0  0  0  0
    3.7550   -0.4130    6.3870 C   0  0  0  0  0
    4.5050   -0.6140    7.4520 N   0  0  0  0  0
    4.0420   -0.4360    8.6740 C   0  0  0  0  0
    1.5930    0.2410    5.3210 C   0  0  0  0  0
    2.1310    0.8480    4.1830 C   0  0  0  0  0
    1.3080    1.0420    3.0880 C   0  0  0  0  0
    0.0450    0.6510    3.1500 N   0  0  0  0  0
   -0.4380    0.0770    4.2420 C   0  0  0  0  0
    0.3130   -0.1220    5.3140 N   0  0  0  0  0
   -1.7650   -0.3170    4.2660 N   0  0  0  0  0
   -2.5410   -0.2300    3.1060 C   0  0  0  0  0
   -3.9010    0.0400    3.1980 C   0  0  0  0  0
   -4.6690    0.1260    2.0520 C   0  0  0  0  0
   -4.0870   -0.0560    0.8120 C   0  0  0  0  0
   -2.7280   -0.3270    0.7140 C   0  0  0  0  0
   -1.9550   -0.4190    1.8620 C   0  0  0  0  0
   -2.1400   -0.5120   -0.5410 N   0  0  0  0  0
   -2.5470    0.2280   -1.5910 C   0  0  0  0  0
   -1.9940   -0.0310   -2.9370 C   0  0  0  0  0
   -2.4130    0.7340   -4.0270 C   0  0  0  0  0
   -1.8920    0.4860   -5.2800 C   0  0  0  0  0
   -0.9570   -0.5170   -5.4580 C   0  0  0  0  0
   -0.5420   -1.2830   -4.3840 C   0  0  0  0  0
   -1.0500   -1.0420   -3.1240 C   0  0  0  0  0
   -0.3930   -0.7810   -6.8300 C   0  0  0  0  0
    0.8090    0.0380   -7.0320 N   0  0  0  0  0
    1.3060   -0.2640   -8.3790 C   0  0  0  0  0
    2.6290    0.4630   -8.6150 C   0  0  0  0  0
    3.6380   -0.0270   -7.6680 N   0  0  0  0  0
    4.8400    0.7920   -7.8700 C   0  0  0  0  0
    3.1410    0.2760   -6.3210 C   0  0  0  0  0
    1.8170   -0.4520   -6.0850 C   0  0  0  0  0
   -3.3680    1.1100   -1.4310 O   0  0  0  0  0
   -4.5390    0.2400    4.5480 C   0  0  0  0  0
    2.3710    0.1200    9.8940 H   0  0  0  0  0
    0.8930    0.5320    7.9410 H   0  0  0  0  0
    4.1710   -0.5700    5.4030 H   0  0  0  0  0
    4.6890   -0.6160    9.5190 H   0  0  0  0  0
    3.1660    1.1570    4.1590 H   0  0  0  0  0
    1.6920    1.5080    2.1930 H   0  0  0  0  0
   -2.1570   -0.6540    5.0870 H   0  0  0  0  0
   -5.7250    0.3360    2.1260 H   0  0  0  0  0
   -4.6900    0.0110   -0.0800 H   0  0  0  0  0
   -0.8990   -0.6300    1.7880 H   0  0  0  0  0
   -1.4400   -1.1730   -0.6560 H   0  0  0  0  0
   -3.1420    1.5180   -3.8890 H   0  0  0  0  0
   -2.2160    1.0770   -6.1240 H   0  0  0  0  0
    0.1870   -2.0650   -4.5300 H   0  0  0  0  0
   -0.7220   -1.6380   -2.2850 H   0  0  0  0  0
   -1.1370   -0.5260   -7.5850 H   0  0  0  0  0
   -0.1320   -1.8360   -6.9190 H   0  0  0  0  0
    0.5740    0.0630   -9.1180 H   0  0  0  0  0
    1.4600   -1.3390   -8.4750 H   0  0  0  0  0
    2.4860    1.5330   -8.4700 H   0  0  0  0  0
    2.9680    0.2780   -9.6350 H   0  0  0  0  0
    5.6230    0.4640   -7.1850 H   0  0  0  0  0
    5.1870    0.6820   -8.8970 H   0  0  0  0  0
    4.6030    1.8380   -7.6760 H   0  0  0  0  0
    3.8720   -0.0520   -5.5820 H   0  0  0  0  0
    2.9860    1.3500   -6.2250 H   0  0  0  0  0
    1.4780   -0.2670   -5.0650 H   0  0  0  0  0
    1.9610   -1.5220   -6.2300 H   0  0  0  0  0
   -4.8900   -0.7180    4.9300 H   0  0  0  0  0
   -3.8070    0.6610    5.2370 H   0  0  0  0  0
   -5.3830    0.9240    4.4530 H   0  0  0  0  0
  1  2  2  0  0  0
  1  6  1  0  0  0
  1 38  1  0  0  0
  2  3  1  0  0  0
  2 39  1  0  0  0
  3  4  2  0  0  0
  3  7  1  0  0  0
  4  5  1  0  0  0
  4 40  1  0  0  0
  5  6  2  0  0  0
  6 41  1  0  0  0
  7  8  2  0  0  0
  7 12  1  0  0  0
  8  9  1  0  0  0
  8 42  1  0  0  0
  9 10  2  0  0  0
  9 43  1  0  0  0
 10 11  1  0  0  0
 11 12  2  0  0  0
 11 13  1  0  0  0
 13 14  1  0  0  0
 13 44  1  0  0  0
 14 15  2  0  0  0
 14 19  1  0  0  0
 15 16  1  0  0  0
 15 37  1  0  0  0
 16 17  2  0  0  0
 16 45  1  0  0  0
 17 18  1  0  0  0
 17 46  1  0  0  0
 18 19  2  0  0  0
 18 20  1  0  0  0
 19 47  1  0  0  0
 20 21  1  0  0  0
 20 48  1  0  0  0
 21 22  1  0  0  0
 21 36  2  0  0  0
 22 23  2  0  0  0
 22 27  1  0  0  0
 23 24  1  0  0  0
 23 49  1  0  0  0
 24 25  2  0  0  0
 24 50  1  0  0  0
 25 26  1  0  0  0
 25 28  1  0  0  0
 26 27  2  0  0  0
 26 51  1  0  0  0
 27 52  1  0  0  0
 28 29  1  0  0  0
 28 53  1  0  0  0
 28 54  1  0  0  0
 29 30  1  0  0  0
 29 35  1  0  0  0
 30 31  1  0  0  0
 30 55  1  0  0  0
 30 56  1  0  0  0
 31 32  1  0  0  0
 31 57  1  0  0  0
 31 58  1  0  0  0
 32 33  1  0  0  0
 32 34  1  0  0  0
 33 59  1  0  0  0
 33 60  1  0  0  0
 33 61  1  0  0  0
 34 35  1  0  0  0
 34 62  1  0  0  0
 34 63  1  0  0  0
 35 64  1  0  0  0
 35 65  1  0  0  0
 37 66  1  0  0  0
 37 67  1  0  0  0
 37 68  1  0  0  0
M  END
$$$$
