
     RDKit          3D

 32 35  0  0  0  0  0  0  0  0999 V2000
   17.1120   38.7440   49.9850 C   0  0  1  0  0  0  0  0  0  0  0  0
   23.3430   47.8730   59.9750 C   0  0  2  0  0  0  0  0  0  0  0  0
   21.8540   47.7960   60.3800 C   0  0  0  0  0  0  0  0  0  0  0  0
   21.5310   46.3370   59.9640 C   0  0  0  0  0  0  0  0  0  0  0  0
   19.0900   42.4130   52.7240 C   0  0  0  0  0  0  0  0  0  0  0  0
   17.7100   42.1250   52.7730 C   0  0  0  0  0  0  0  0  0  0  0  0
   17.1220   41.4020   51.7240 C   0  0  0  0  0  0  0  0  0  0  0  0
   20.9480   43.4140   54.0070 C   0  0  0  0  0  0  0  0  0  0  0  0
   21.2980   44.0880   55.3010 C   0  0  0  0  0  0  0  0  0  0  0  0
   22.2560   45.1030   55.3460 C   0  0  0  0  0  0  0  0  0  0  0  0
   21.9270   45.3750   57.6990 C   0  0  0  0  0  0  0  0  0  0  0  0
   20.8770   44.4080   57.6990 C   0  0  0  0  0  0  0  0  0  0  0  0
   20.6100   43.7420   56.4910 C   0  0  0  0  0  0  0  0  0  0  0  0
   20.1980   43.8850   58.9260 C   0  0  0  0  0  0  0  0  0  0  0  0
   20.9740   43.2960   59.9460 C   0  0  0  0  0  0  0  0  0  0  0  0
   16.3750   38.5670   51.1050 F   0  0  0  0  0  0  0  0  0  0  0  0
   18.3190   38.1390   50.2000 F   0  0  0  0  0  0  0  0  0  0  0  0
   16.4470   38.2230   48.9200 F   0  0  0  0  0  0  0  0  0  0  0  0
   17.2690   40.1370   49.6940 O   0  0  0  0  0  0  0  0  0  0  0  0
   17.8980   40.9300   50.6650 C   0  0  0  0  0  0  0  0  0  0  0  0
   19.2880   41.1380   50.6690 C   0  0  0  0  0  0  0  0  0  0  0  0
   19.8820   41.8790   51.6880 C   0  0  0  0  0  0  0  0  0  0  0  0
   19.6420   43.1060   53.8120 N   0  0  0  0  0  0  0  0  0  0  0  0
   21.8250   43.2820   53.1710 O   0  0  0  0  0  0  0  0  0  0  0  0
   22.5710   45.6270   56.5370 N   0  0  0  0  0  0  0  0  0  0  0  0
   20.3780   42.8050   61.0600 N   0  0  0  0  0  0  0  0  0  0  0  0
   19.0330   42.8130   61.1980 C   0  0  0  0  0  0  0  0  0  0  0  0
   18.2660   43.3540   60.2330 N   0  0  0  0  0  0  0  0  0  0  0  0
   18.8080   43.8690   59.0970 C   0  0  0  0  0  0  0  0  0  0  0  0
   22.2650   46.2420   58.7060 N   0  0  0  0  0  0  0  0  0  0  0  0
   23.2800   47.2970   58.5450 C   0  0  0  0  0  0  0  0  0  0  0  0
   24.1260   47.0050   60.8180 O   0  0  0  0  0  0  0  0  0  0  0  0
  3  2  1  0
  4  3  1  0
  6  5  2  0
  7  6  1  0
  9  8  1  0
 10  9  2  0
 12 11  1  0
 13 12  2  0
 13  9  1  0
 14 12  1  0
 15 14  2  0
  1 16  1  1
 17  1  1  0
 18  1  1  0
 19  1  1  0
 20 19  1  0
 20  7  2  0
 21 20  1  0
 22 21  2  0
 22  5  1  0
 23  8  1  0
 23  5  1  0
 24  8  2  0
 25 11  2  0
 25 10  1  0
 26 15  1  0
 27 26  2  0
 28 27  1  0
 29 28  2  0
 29 14  1  0
 30  4  1  0
 30 11  1  0
 31 30  1  0
 31  2  1  0
  2 32  1  1
M  END
$$$$
