REMARK  Name = 
REMARK  6 active torsions:
REMARK  status: ('A' for Active; 'I' for Inactive)
REMARK    1  A    between atoms: C_1  and  O_19
REMARK    2  A    between atoms: C_2  and  O_32
REMARK    3  A    between atoms: C_5  and  N_23
REMARK    4  A    between atoms: C_8  and  C_9
REMARK    5  A    between atoms: C_12  and  C_14
REMARK    6  A    between atoms: O_19  and  C_20
REMARK                            x       y       z     vdW  Elec       q    Type
REMARK                         _______ _______ _______ _____ _____    ______ ____
ROOT
ATOM      1  C   UNL     1      21.298  44.088  55.301  0.00  0.00    +0.056 A 
ATOM      2  C   UNL     1      20.610  43.742  56.491  0.00  0.00    +0.026 A 
ATOM      3  C   UNL     1      20.877  44.408  57.699  0.00  0.00    +0.026 A 
ATOM      4  C   UNL     1      21.927  45.375  57.699  0.00  0.00    +0.129 A 
ATOM      5  N   UNL     1      22.265  46.242  58.706  0.00  0.00    -0.312 N 
ATOM      6  C   UNL     1      23.280  47.297  58.545  0.00  0.00    +0.137 C 
ATOM      7  C   UNL     1      23.343  47.873  59.975  0.00  0.00    +0.133 C 
ATOM      8  C   UNL     1      21.854  47.796  60.380  0.00  0.00    +0.052 C 
ATOM      9  C   UNL     1      21.531  46.337  59.964  0.00  0.00    +0.109 C 
ATOM     10  N   UNL     1      22.571  45.627  56.537  0.00  0.00    -0.239 NA
ATOM     11  C   UNL     1      22.256  45.103  55.346  0.00  0.00    +0.126 A 
ENDROOT
BRANCH   3  12
ATOM     12  C   UNL     1      20.198  43.885  58.926  0.00  0.00    +0.022 A 
ATOM     13  C   UNL     1      18.808  43.869  59.097  0.00  0.00    +0.122 A 
ATOM     14  N   UNL     1      18.266  43.354  60.233  0.00  0.00    -0.243 NA
ATOM     15  C   UNL     1      19.033  42.813  61.198  0.00  0.00    +0.221 A 
ATOM     16  N   UNL     1      20.378  42.805  61.060  0.00  0.00    -0.243 NA
ATOM     17  C   UNL     1      20.974  43.296  59.946  0.00  0.00    +0.122 A 
ENDBRANCH   3  12
BRANCH   1  20
ATOM     18  N   UNL     1      19.642  43.106  53.812  0.00  0.00    -0.281 N 
ATOM     19  H   UNL     1      19.013  43.401  54.510  0.00  0.00    +0.155 HD
ATOM     20  C   UNL     1      20.948  43.414  54.007  0.00  0.00    +0.250 C 
ATOM     21  O   UNL     1      21.825  43.282  53.171  0.00  0.00    -0.270 OA
BRANCH  18  25
ATOM     22  C   UNL     1      17.898  40.930  50.665  0.00  0.00    +0.130 A 
ATOM     23  C   UNL     1      19.288  41.138  50.669  0.00  0.00    +0.048 A 
ATOM     24  C   UNL     1      19.882  41.879  51.688  0.00  0.00    +0.027 A 
ATOM     25  C   UNL     1      19.090  42.413  52.724  0.00  0.00    +0.034 A 
ATOM     26  C   UNL     1      17.710  42.125  52.773  0.00  0.00    +0.027 A 
ATOM     27  C   UNL     1      17.122  41.402  51.724  0.00  0.00    +0.048 A 
BRANCH  22  28
ATOM     28  O   UNL     1      17.269  40.137  49.694  0.00  0.00    -0.406 OA
BRANCH  28  29
ATOM     29  C   UNL     1      17.112  38.744  49.985  0.00  0.00    +0.575 C 
ATOM     30  F   UNL     1      16.447  38.223  48.920  0.00  0.00    -0.133 F 
ATOM     31  F   UNL     1      18.319  38.139  50.200  0.00  0.00    -0.133 F 
ATOM     32  F   UNL     1      16.375  38.567  51.105  0.00  0.00    -0.133 F 
ENDBRANCH  28  29
ENDBRANCH  22  28
ENDBRANCH  18  25
ENDBRANCH   1  20
BRANCH   7  33
ATOM     33  O   UNL     1      24.126  47.005  60.818  0.00  0.00    -0.390 OA
ATOM     34  H   UNL     1      23.764  46.106  60.781  0.00  0.00    +0.210 HD
ENDBRANCH   7  33
TORSDOF 6
